Test_Network/condensed/network_18/Feeder_8/Lines.txt
New Line.LINE41 Bus1=41 Bus2=42 phases=3 Linecode=3c_25_SAC_XC Length=1.2797 Units=m
New Line.LINE42 Bus1=41 Bus2=43 phases=3 Linecode=4c_.2 Length=9.3467 Units=m
New Line.LINE43 Bus1=42 Bus2=44 phases=3 Linecode=3c_25_SAC_XC Length=0.83093 Units=m
New Line.LINE45 Bus1=43 Bus2=46 phases=3 Linecode=4c_.2 Length=2.5824 Units=m
New Line.LINE46 Bus1=44 Bus2=47 phases=3 Linecode=3c_25_SAC_XC Length=1.1061 Units=m
New Line.LINE48 Bus1=46 Bus2=49 phases=3 Linecode=4c_.2 Length=13.0237 Units=m
New Line.LINE49 Bus1=47 Bus2=50 phases=3 Linecode=3c_25_SAC_XC Length=1.0336 Units=m
New Line.LINE51 Bus1=49 Bus2=52 phases=3 Linecode=4c_.1 Length=0.81214 Units=m
New Line.LINE52 Bus1=50 Bus2=53 phases=3 Linecode=3c_25_SAC_XC Length=2.2896 Units=m
New Line.LINE55 Bus1=52 Bus2=56 phases=3 Linecode=4c_.1 Length=3.2015 Units=m
New Line.LINE56 Bus1=53 Bus2=57 phases=3 Linecode=3c_25_SAC_XC Length=1.3029 Units=m
New Line.LINE60 Bus1=56 Bus2=61 phases=3 Linecode=4c_.1 Length=5.9214 Units=m
New Line.LINE61 Bus1=57 Bus2=62 phases=3 Linecode=3c_25_SAC_XC Length=1.5132 Units=m
New Line.LINE65 Bus1=61 Bus2=66 phases=3 Linecode=4c_.1 Length=1.4943 Units=m
New Line.LINE66 Bus1=62 Bus2=67 phases=3 Linecode=3c_25_SAC_XC Length=24.7958 Units=m
New Line.LINE70 Bus1=66 Bus2=71 phases=3 Linecode=4c_.1 Length=5.3548 Units=m
New Line.LINE72 Bus1=67 Bus2=73 phases=3 Linecode=3c_25_SAC_XC Length=24.7471 Units=m
New Line.LINE76 Bus1=71 Bus2=77 phases=3 Linecode=4c_120_SAC Length=3.1125 Units=m
New Line.LINE78 Bus1=73 Bus2=79 phases=3 Linecode=25_SAC_XC Length=6.7319 Units=m
New Line.LINE84 Bus1=77 Bus2=85 phases=3 Linecode=4c_120_SAC Length=0.055868 Units=m
New Line.LINE90 Bus1=85 Bus2=91 phases=3 Linecode=4c_120_SAC Length=10.2641 Units=m
New Line.LINE96 Bus1=91 Bus2=97 phases=3 Linecode=4c_.1 Length=10.3777 Units=m
New Line.LINE102 Bus1=97 Bus2=103 phases=3 Linecode=4c_.1 Length=7.2339 Units=m
New Line.LINE109 Bus1=103 Bus2=110 phases=3 Linecode=4c_.1 Length=2.9262 Units=m
New Line.LINE116 Bus1=110 Bus2=117 phases=3 Linecode=4c_.1 Length=7.2833 Units=m
New Line.LINE128 Bus1=120 Bus2=129 phases=3 Linecode=25_SAC_XC Length=4.8977 Units=m
New Line.LINE200 Bus1=193 Bus2=201 phases=3 Linecode=2c Length=2.7591 Units=m
New Line.LINE208 Bus1=202 Bus2=209 phases=3 Linecode=2c Length=5.2729 Units=m
New Line.LINE234 Bus1=231 Bus2=235 phases=3 Linecode=2c Length=16.5181 Units=m
New Line.LINE240 Bus1=235 Bus2=241 phases=3 Linecode=2c Length=3.9111 Units=m
New Line.LINE248 Bus1=243 Bus2=249 phases=3 Linecode=2c_.04 Length=3.5973 Units=m
New Line.LINE304 Bus1=298 Bus2=305 phases=3 Linecode=2c_.04 Length=2.282 Units=m
New Line.LINE325 Bus1=319 Bus2=326 phases=3 Linecode=2c_.04 Length=2.365 Units=m
New Line.LINE335 Bus1=330 Bus2=336 phases=3 Linecode=4c_.1 Length=0.57802 Units=m
New Line.LINE338 Bus1=336 Bus2=339 phases=3 Linecode=4c_.1 Length=4.5242 Units=m
New Line.LINE341 Bus1=339 Bus2=342 phases=3 Linecode=25_SAC_XC Length=11.7267 Units=m
New Line.LINE344 Bus1=342 Bus2=345 phases=3 Linecode=25_SAC_XC Length=4.3075 Units=m
New Line.LINECmpd_0 Bus1=43 Bus2=158 phases=3 Linecode=2c_.0225 Length=24.51205 Units=m
New Line.LINECmpd_1 Bus1=1 Bus2=41 phases=3 Linecode=4c_.2 Length=41.379813 Units=m
New Line.LINECmpd_2 Bus1=77 Bus2=193 phases=3 Linecode=2c Length=17.693383 Units=m
New Line.LINECmpd_3 Bus1=235 Bus2=318 phases=3 Linecode=2c Length=9.02074 Units=m
New Line.LINECmpd_4 Bus1=52 Bus2=120 phases=3 Linecode=25_SAC_XC Length=19.73245 Units=m
New Line.LINECmpd_5 Bus1=117 Bus2=231 phases=3 Linecode=4c_.1 Length=19.19189 Units=m
New Line.LINECmpd_6 Bus1=272 Bus2=319 phases=3 Linecode=2c_.04 Length=17.33246 Units=m
New Line.LINECmpd_7 Bus1=243 Bus2=255 phases=3 Linecode=2c_.04 Length=6.3565 Units=m
New Line.LINECmpd_8 Bus1=330 Bus2=347 phases=3 Linecode=25_SAC_XC Length=15.58671 Units=m
New Line.LINECmpd_9 Bus1=193 Bus2=283 phases=3 Linecode=2c Length=20.86929 Units=m
New Line.LINECmpd_10 Bus1=110 Bus2=243 phases=3 Linecode=2c_.04 Length=30.03729 Units=m
New Line.LINECmpd_11 Bus1=247 Bus2=272 phases=3 Linecode=4c_.1 Length=23.046 Units=m
New Line.LINECmpd_12 Bus1=302 Bus2=333 phases=3 Linecode=25_SAC_XC Length=16.928539 Units=m
New Line.LINECmpd_13 Bus1=117 Bus2=202 phases=3 Linecode=2c Length=22.81042 Units=m
New Line.LINECmpd_14 Bus1=231 Bus2=247 phases=3 Linecode=4c_.1 Length=16.9563 Units=m
New Line.LINECmpd_15 Bus1=202 Bus2=229 phases=3 Linecode=2c Length=10.40447 Units=m
New Line.LINECmpd_16 Bus1=247 Bus2=298 phases=3 Linecode=2c_.04 Length=18.4452 Units=m
New Line.LINECmpd_17 Bus1=319 Bus2=331 phases=3 Linecode=2c_.04 Length=11.9375 Units=m
New Line.LINECmpd_18 Bus1=291 Bus2=320 phases=3 Linecode=25_SAC_XC Length=15.7101 Units=m
New Line.LINECmpd_19 Bus1=272 Bus2=291 phases=3 Linecode=4c_.1 Length=15.9181 Units=m
New Line.LINECmpd_20 Bus1=298 Bus2=312 phases=3 Linecode=2c_.04 Length=13.4358 Units=m
New Line.LINECmpd_21 Bus1=317 Bus2=340 phases=3 Linecode=25_SAC_XC Length=16.3243 Units=m
New Line.LINECmpd_22 Bus1=291 Bus2=302 phases=3 Linecode=4c_.1 Length=5.75613 Units=m
New Line.LINECmpd_23 Bus1=302 Bus2=317 phases=3 Linecode=4c_.1 Length=10.7139 Units=m
New Line.LINECmpd_24 Bus1=317 Bus2=330 phases=3 Linecode=4c_.1 Length=11.5599 Units=m
New Line.LINECmpd_25 Bus1=120 Bus2=137 phases=3 Linecode=25_SAC_XC Length=6.8554 Units=m
